Power Flow/base_power_flow_w_qlim.txt
POWER FLOW REPORT
 
P S A T  2.1.11
 
Author:  Federico Milano, (c) 2002-2019
e-mail:  federico.milano@ucd.ie
website: faraday1.ucd.ie/psat.html
 
File:  C:\Users\atick\Matlab\Power System Dynamics Project\Power Flow\modified_14_bus_system
Date:  01-Dec-2023 16:32:31


NETWORK STATISTICS

Buses:                        14         
Lines:                        16         
Transformers:                 5          
Generators:                   5          
Loads:                        11         

SOLUTION STATISTICS

Number of Iterations:         8          
Maximum P mismatch [p.u.]     0          
Maximum Q mismatch [p.u.]     0          
Power rate [MVA]              100        

POWER FLOW RESULTS

Bus         V           phase       P gen       Q gen       P load      Q load      
            [p.u.]      [rad]       [p.u.]      [p.u.]      [p.u.]      [p.u.]      

Bus 01      1.06        0           2.2601     -0.11467     0           0          
Bus 02      1.0324     -0.18264     0.38        0.5         0.20615     0.12065    
Bus 03      1.01       -0.29708     0           0.32678     0.8949      0.1805     
Bus 04      1.0092     -0.24536     0           0           0.4541      0.038      
Bus 04(twt  1.0509     -0.29077     0           0           0           0          
Bus 05      1.0114     -0.2147      0           0           0.0722      0.0152     
Bus 06      1.0658     -0.31052     0           0.24        0.1064      0.07125    
Bus 08      1.0897     -0.29077     0           0.24        0           0          
Bus 09      1.0375     -0.31453     0           0           0.28025     0.1577     
Bus 10      1.0458     -0.31799     0           0           0.0855      0.0551     
Bus 11      1.0538     -0.31505     0           0           0.03325     0.0171     
Bus 12      1.0484     -0.32596     0           0           0.05795     0.0152     
Bus 13      1.0423     -0.32615     0           0           0.12825     0.0551     
Bus 14      1.0265     -0.33245     0           0           0.14155     0.0475     

LINE FLOWS

From Bus    To Bus      Line        P Flow      Q Flow      P Loss      Q Loss      
                                    [p.u.]      [p.u.]      [p.u.]      [p.u.]      

Bus 02      Bus 05      1           0.22279     0.04429     0.00271    -0.02546    
Bus 06      Bus 12      2           0.07305     0.02892     0.00076     0.00158    
Bus 12      Bus 13      3           0.01434     0.01213     8e-05       7e-05      
Bus 06      Bus 13      4           0.16136     0.08744     0.00224     0.0044     
Bus 06      Bus 11      5           0.06026     0.0556      0.00043     0.00089    
Bus 11      Bus 06      6          -0.06068    -0.06032     0.00041     0.00096    
Bus 11      Bus 10      7           0.08726     0.09793     0.00037     0.00099    
Bus 09      Bus 10      8          -0.00123    -0.04151     0.00015     0.00033    
Bus 09      Bus 14      9           0.09772     0.01024     0.00087     0.00184    
Bus 14      Bus 13      10         -0.0447     -0.03911     0.00043     0.00089    
Bus 01      Bus 02      11          1.1597     -0.18096     0.07769     0.16231    
Bus 02      Bus 03      12          0.63517    -0.01353     0.0169      0.0278     
Bus 03      Bus 04      13         -0.27662     0.10495     0.0057     -0.01896    
Bus 01      Bus 05      14          1.1005      0.06628     0.05571     0.17982    
Bus 05      Bus 04      15          0.73045    -0.16938     0.00694     0.00949    
Bus 02      Bus 04      16          0.39788     0.00533     0.00823    -0.01206    
Bus 05      Bus 06      17          0.46216     0.11039     0           0.0459     
Bus 04      Bus 09      18          0.14133     0.01275     0           0.00981    
Bus 04      Bus 04(twt  19          0.2354     -0.08833     0           0.01242    
Bus 04(twt) Bus 09      20          0.2354      0.13071     0           0.00722    
Bus 04(twt) Bus 08      21          0          -0.23146     0           0.00854    

LINE FLOWS

From Bus    To Bus      Line        P Flow      Q Flow      P Loss      Q Loss      
                                    [p.u.]      [p.u.]      [p.u.]      [p.u.]      

Bus 05      Bus 02      1          -0.22007    -0.06975     0.00271    -0.02546    
Bus 12      Bus 06      2          -0.07229    -0.02733     0.00076     0.00158    
Bus 13      Bus 12      3          -0.01426    -0.01206     8e-05       7e-05      
Bus 13      Bus 06      4          -0.15912    -0.08303     0.00224     0.0044     
Bus 11      Bus 06      5          -0.05983    -0.05471     0.00043     0.00089    
Bus 06      Bus 11      6           0.06109     0.06129     0.00041     0.00096    
Bus 10      Bus 11      7          -0.08689    -0.09694     0.00037     0.00099    
Bus 10      Bus 09      8           0.00139     0.04184     0.00015     0.00033    
Bus 14      Bus 09      9          -0.09685    -0.00839     0.00087     0.00184    
Bus 13      Bus 14      10          0.04513     0.03999     0.00043     0.00089    
Bus 02      Bus 01      11         -1.082       0.34326     0.07769     0.16231    
Bus 03      Bus 02      12         -0.61828     0.04133     0.0169      0.0278     
Bus 04      Bus 03      13          0.28232    -0.1239      0.0057     -0.01896    
Bus 05      Bus 01      14         -1.0447      0.11353     0.05571     0.17982    
Bus 04      Bus 05      15         -0.72351     0.17887     0.00694     0.00949    
Bus 04      Bus 02      16         -0.38965    -0.01739     0.00823    -0.01206    
Bus 06      Bus 05      17         -0.46216    -0.06449     0           0.0459     
Bus 09      Bus 04      18         -0.14133    -0.00294     0           0.00981    
Bus 04(twt) Bus 04      19         -0.2354      0.10075     0           0.01242    
Bus 09      Bus 04(twt  20         -0.2354     -0.12348     0           0.00722    
Bus 08      Bus 04(twt  21          0           0.24        0           0.00854    

GLOBAL SUMMARY REPORT


TOTAL GENERATION

REAL POWER [p.u.]             2.6401     
REACTIVE POWER [p.u.]         1.1921     

TOTAL LOAD

REAL POWER [p.u.]             2.4605     
REACTIVE POWER [p.u.]         0.7733     

TOTAL LOSSES

REAL POWER [p.u.]             0.17964    
REACTIVE POWER [p.u.]         0.4188     

